%nproc=32
%mem=40GB
#force wB97XD/6-31G(d)

mol

0 1
C 29.61 21.299999999999997 8.85
C 28.59 22.18 8.459999999999999
C 27.53 22.549999999999997 9.290000000000001
C 27.41 21.9 10.52
C 28.439999999999998 21.06 10.96
C 29.51 20.73 10.120000000000001
Cl 28.54 20.369999999999997 12.56
C 26.36 22.3 11.51
O 25.57 21.5 11.959999999999999
N 26.45 23.59 11.98
C 25.65 24.2 12.969999999999999
C 25.75 23.95 14.34
C 24.950000000000003 24.660000000000004 15.25
N 24.16 25.68 14.89
C 24.020000000000003 25.939999999999998 13.59
C 24.8 25.259999999999998 12.64
N 23.119999999999997 26.93 13.120000000000001
C 22.39 27.06 11.959999999999999
O 22.330000000000002 26.22 11.080000000000002
C 21.6 28.34 11.99
C 22.189999999999998 29.51 11.240000000000002
C 20.96 28.81 10.700000000000001
H 20.97 28.090000000000003 9.89
Cl 26.28 23.59 8.65
H 20.9 28.46 12.809999999999999
H 20.03 29.36 10.809999999999999
H 30.4 20.990000000000002 8.18
H 28.67 22.599999999999998 7.46
H 30.28 20.04 10.469999999999999
H 27.259999999999998 24.14 11.71
H 26.54 23.31 14.719999999999999
H 25.139999999999997 24.580000000000002 16.32
H 24.77 25.560000000000002 11.6
H 22.88 27.69 13.740000000000002
H 22.200000000000003 30.39 11.879999999999999
H 23.18 29.39 10.8

