%nproc=32
%mem=40GB
#force wB97XD/6-31G(d)

mol

0 1
C 30.77 27.89 9.74
C 29.48 28.21 9.31
C 28.4 27.330000000000002 9.43
C 28.69 26.080000000000002 10.0
C 29.97 25.779999999999998 10.469999999999999
C 31.04 26.669999999999998 10.36
Cl 30.33 24.27 11.27
C 27.59 25.08 10.04
O 27.650000000000002 24.049999999999997 9.389999999999999
N 26.63 25.41 10.969999999999999
C 25.560000000000002 24.68 11.54
C 25.68 23.3 11.690000000000001
C 24.59 22.599999999999998 12.21
N 23.490000000000002 23.279999999999998 12.56
C 23.35 24.6 12.36
C 24.409999999999997 25.39 11.899999999999999
N 22.229999999999997 25.28 12.86
C 21.560000000000002 26.29 12.2
O 21.86 26.64 11.07
C 20.5 26.9 13.100000000000001
Cl 26.83 27.759999999999998 8.8
C 19.64 27.94 12.34
H 31.549999999999997 28.64 9.629999999999999
H 29.380000000000003 29.169999999999998 8.81
H 32.01 26.44 10.8
H 26.78 26.269999999999996 11.479999999999999
H 26.589999999999996 22.799999999999997 11.35
H 24.71 21.54 12.450000000000001
H 24.340000000000003 26.48 11.879999999999999
H 21.939999999999998 24.93 13.77
C 20.96 27.549999999999997 14.41
H 19.810000000000002 26.099999999999998 13.4
H 21.76 28.25 14.15
H 20.150000000000002 28.159999999999997 14.830000000000002
H 21.389999999999997 26.810000000000002 15.11
H 19.36 27.53 11.370000000000001
H 18.71 28.21 12.85
H 20.06 28.94 12.2

