%nproc=32
%mem=40GB
#force wB97XD/6-31G(d)

mol

0 1
C 28.479999999999997 28.5 15.14
C 27.259999999999998 28.24 15.77
C 26.05 28.25 15.069999999999999
C 26.110000000000003 28.56 13.700000000000001
C 27.32 28.84 13.07
C 28.53 28.75 13.77
Cl 27.46 29.16 11.35
C 24.89 28.47 12.86
O 24.56 29.43 12.18
N 24.209999999999997 27.28 12.72
C 23.02 27.06 11.98
C 21.96 27.970000000000002 11.99
C 20.830000000000002 27.59 11.259999999999998
N 20.689999999999998 26.43 10.600000000000001
C 21.7 25.55 10.629999999999999
C 22.88 25.85 11.31
N 21.46 24.23 10.19
C 21.509999999999998 23.96 8.84
O 21.92 24.759999999999998 8.01
C 20.86 22.62 8.52
Cl 24.529999999999998 28.130000000000003 15.93
H 20.76 21.98 9.399999999999999
H 29.36 28.5 15.780000000000001
H 27.27 28.07 16.84
H 29.48 28.97 13.280000000000001
H 24.48 26.509999999999998 13.32
H 21.909999999999997 28.81 12.669999999999998
H 19.91 28.17 11.25
H 23.67 25.09 11.27
H 21.099999999999998 23.509999999999998 10.809999999999999
H 19.79 22.650000000000002 8.29
H 21.76 22.259999999999998 6.57
C 21.520000000000003 21.720000000000002 7.48
C 22.44 20.64 7.98
C 21.110000000000003 20.270000000000003 7.38
H 23.290000000000003 20.45 7.31
H 22.53 20.339999999999996 9.02
H 21.12 19.830000000000002 6.38
H 20.35 19.950000000000003 8.08

