%nproc=32
%mem=40GB
#force wB97XD/6-31G(d)

mol

0 1
C 28.130000000000003 19.64 12.8
C 27.519999999999996 19.48 11.54
C 26.419999999999998 20.310000000000002 11.31
C 25.81 21.06 12.32
C 26.36 21.06 13.600000000000001
C 27.57 20.39 13.83
Cl 25.630000000000003 21.97 14.91
C 24.57 21.85 12.1
O 23.55 21.33 11.68
N 24.62 23.22 12.290000000000001
C 23.56 24.13 12.2
C 22.229999999999997 23.83 12.54
C 21.25 24.79 12.3
N 21.48 26.02 11.82
C 22.759999999999998 26.32 11.57
C 23.81 25.4 11.66
N 23.04 27.639999999999997 11.15
C 23.479999999999997 27.91 9.87
O 23.82 27.040000000000003 9.09
C 23.3 29.35 9.42
Cl 25.779999999999998 20.39 9.68
H 23.32 29.43 8.32
H 29.08 19.13 12.92
H 28.0 18.97 10.709999999999999
H 28.08 20.419999999999998 14.790000000000001
H 25.52 23.650000000000002 12.47
H 21.909999999999997 22.88 12.95
H 20.2 24.540000000000003 12.44
H 24.849999999999998 25.67 11.47
H 22.83 28.380000000000003 11.799999999999999
H 22.3 29.740000000000002 9.65
H 24.08 30.16 11.03
O 24.13 30.310000000000002 10.069999999999999

