%nproc=32
%mem=40GB
#force wB97XD/6-31G(d)

mol

0 1
C 31.5 24.72 10.42
C 31.17 24.020000000000003 11.579999999999998
C 29.87 24.089999999999996 12.1
C 28.990000000000002 25.04 11.57
C 29.33 25.82 10.469999999999999
C 30.590000000000003 25.64 9.89
Cl 28.090000000000003 26.73 9.64
C 27.669999999999998 25.2 12.25
O 27.34 26.230000000000004 12.82
N 26.840000000000003 24.119999999999997 12.08
C 25.58 23.96 12.7
C 25.32 22.98 13.67
C 24.04 22.95 14.219999999999999
N 23.02 23.700000000000003 13.77
C 23.3 24.68 12.9
C 24.580000000000002 24.88 12.39
N 22.32 25.659999999999997 12.61
C 21.79 25.9 11.36
O 22.43 25.49 10.41
C 20.369999999999997 26.45 11.34
Cl 29.43 23.25 13.57
C 19.330000000000002 25.61 12.1
H 32.410000000000004 24.48 9.879999999999999
H 31.85 23.39 12.14
H 30.81 26.150000000000002 8.95
H 27.240000000000002 23.32 11.6
H 26.07 22.34 14.13
H 23.79 22.18 14.950000000000001
H 24.84 25.68 11.71
H 21.709999999999997 25.910000000000004 13.38
C 19.91 26.48 9.87
C 20.43 27.85 11.959999999999999
H 20.560000000000002 27.15 9.3
H 20.07 25.57 9.280000000000001
H 18.83 26.65 9.77
H 19.5 24.56 11.82
H 19.38 25.689999999999998 13.200000000000001
H 18.29 25.87 11.899999999999999
H 21.16 28.52 11.479999999999999
H 19.419999999999998 28.290000000000003 12.0
H 20.67 27.82 13.03

