%nproc=32
%mem=40GB
#force wB97XD/6-31G(d)

mol

0 1
C 23.55 24.660000000000004 17.310000000000002
C 22.75 23.97 16.39
C 22.480000000000004 24.51 15.129999999999999
C 23.04 25.71 14.68
C 23.87 26.349999999999998 15.600000000000001
C 24.089999999999996 25.89 16.89
Cl 24.630000000000003 27.88 15.18
C 22.69 26.34 13.37
O 21.97 27.330000000000002 13.34
N 23.34 25.72 12.330000000000002
C 23.18 25.979999999999997 10.96
C 22.0 26.54 10.45
C 21.939999999999998 26.69 9.07
N 22.91 26.29 8.23
C 24.07 25.86 8.74
C 24.25 25.659999999999997 10.11
N 25.13 25.7 7.82
C 26.48 25.97 7.9
O 26.97 26.57 8.85
C 27.27 25.74 6.640000000000001
C 28.769999999999996 25.619999999999997 6.7
C 27.919999999999998 24.39 6.5
C 28.0 23.37 7.51
Cl 21.45 23.69 13.979999999999999
H 26.810000000000002 26.12 5.7299999999999995
H 28.130000000000003 24.0 5.510000000000001
H 23.75 24.24 18.29
H 22.29 23.05 16.71
H 24.759999999999998 26.43 17.549999999999997
H 23.95 24.950000000000003 12.59
H 21.18 26.909999999999997 11.06
H 21.13 27.27 8.62
H 25.240000000000002 25.45 10.489999999999998
H 24.79 25.52 6.879999999999999
H 29.35 25.97 5.85
H 29.29 25.76 7.65
N 28.08 22.61 8.379999999999999

