%nproc=32
%mem=40GB
#force wB97XD/6-31G(d)

mol

0 1
C 29.529999999999998 27.01 7.720000000000001
C 29.64 27.32 9.08
C 28.59 27.09 9.97
C 27.38 26.61 9.45
C 27.22 26.41 8.08
C 28.279999999999998 26.63 7.199999999999999
Cl 25.689999999999998 25.84 7.45
C 26.28 26.28 10.4
O 25.36 27.01 10.73
N 26.36 25.04 10.98
C 25.52 24.32 11.870000000000001
C 25.57 22.93 11.93
C 24.62 22.3 12.75
N 23.79 22.99 13.540000000000001
C 23.88 24.32 13.620000000000001
C 24.77 25.03 12.8
N 23.189999999999998 24.980000000000004 14.66
C 22.650000000000002 26.240000000000002 14.82
O 22.89 27.09 13.99
Cl 28.69 27.5 11.67
H 30.4 27.130000000000003 7.08
H 30.58 27.75 9.43
H 28.18 26.490000000000002 6.13
H 27.259999999999998 24.57 10.89
H 26.25 22.259999999999998 11.41
H 24.72 21.240000000000002 12.98
H 24.82 26.110000000000003 12.88
H 22.9 24.29 15.34
C 21.13 27.62 16.29
H 21.259999999999998 27.95 17.330000000000002
H 21.48 28.43 15.64
C 19.61 27.47 16.13
N 21.86 26.400000000000002 15.940000000000001
H 21.78 25.61 16.57
H 19.32 28.52 16.19
H 19.259999999999998 27.0 15.2
H 19.18 26.939999999999998 16.990000000000002

