%nproc=32
%mem=40GB
#force wB97XD/6-31G(d)

mol

0 1
C 28.53 21.53 9.01
C 27.41 22.229999999999997 8.57
C 26.65 22.85 9.57
C 26.86 22.69 10.940000000000001
C 27.93 21.880000000000003 11.33
C 28.79 21.34 10.37
Cl 28.189999999999998 21.490000000000002 13.01
C 25.93 23.22 11.98
O 24.91 22.68 12.36
N 26.36 24.47 12.379999999999999
C 25.65 25.29 13.29
C 26.34 26.17 14.13
C 25.659999999999997 27.06 14.96
N 24.32 27.160000000000004 14.89
C 23.64 26.36 14.07
C 24.26 25.369999999999997 13.3
N 22.240000000000002 26.54 13.99
C 21.259999999999998 25.57 14.09
O 21.560000000000002 24.39 14.05
C 19.87 26.09 14.43
Cl 25.310000000000002 23.91 9.190000000000001
H 19.9 26.58 15.4
H 29.220000000000002 21.07 8.299999999999999
H 27.14 22.349999999999998 7.52
H 29.59 20.71 10.74
H 27.22 24.759999999999998 11.94
H 27.42 26.25 14.16
H 26.150000000000002 27.93 15.389999999999999
H 23.67 24.75 12.629999999999999
H 22.01 27.519999999999996 14.030000000000001
H 19.04 25.369999999999997 14.36
H 19.62 26.880000000000003 13.71

