%nproc=32
%mem=40GB
#force wB97XD/6-31G(d)

mol

0 1
C 25.139999999999997 20.240000000000002 16.19
C 25.77 20.03 14.96
C 25.689999999999998 21.03 13.99
C 25.169999999999998 22.31 14.21
C 24.630000000000003 22.54 15.48
C 24.689999999999998 21.54 16.45
Cl 23.889999999999997 24.07 15.88
C 25.099999999999998 23.4 13.200000000000001
O 24.04 23.75 12.72
N 26.29 23.97 12.79
C 26.53 24.849999999999998 11.71
C 27.72 24.740000000000002 10.98
C 28.03 25.67 9.98
N 27.229999999999997 26.69 9.66
C 26.04 26.77 10.280000000000001
C 25.67 25.87 11.28
N 25.16 27.810000000000002 9.94
C 24.48 27.970000000000002 8.75
O 24.39 26.92 8.129999999999999
Cl 26.34 20.61 12.41
H 25.150000000000002 19.51 17.0
H 26.19 19.07 14.68
H 24.13 21.69 17.37
H 27.130000000000003 23.68 13.27
H 28.53 24.07 11.259999999999998
H 29.009999999999998 25.64 9.49
H 24.68 25.9 11.73
H 25.049999999999997 28.59 10.58
C 24.16 29.47 8.53
C 23.479999999999997 29.380000000000003 7.14
C 22.39 30.25 7.84
C 22.7 29.33 9.06
H 24.1 29.860000000000003 6.37
H 23.07 28.439999999999998 6.75
H 22.71 31.29 7.94
H 21.36 30.09 7.52
H 22.54 29.700000000000003 10.08
H 22.229999999999997 28.35 8.97
H 24.950000000000003 30.2 8.76

